docs/ieee8500_v42_aemo_voltage_rebuild/ac/B0_PLANNING_FRESH/VOLTAGE_VIOLATIONS.csv
stage,slot,node,voltage_pu,violation
B0_PLANNING_FRESH,8,190-8593.1,1.0500518795032292,over
B0_PLANNING_FRESH,9,190-8593.1,1.050051879503449,over
B0_PLANNING_FRESH,44,m1069519.1,1.0500595240456119,over
B0_PLANNING_FRESH,44,n1136354.1,1.0500200075228752,over
B0_PLANNING_FRESH,44,l2897793.1,1.0513416049215598,over
B0_PLANNING_FRESH,44,m1069521.1,1.0513354323469126,over
B0_PLANNING_FRESH,44,d5534969-2_int.1,1.0501101971572928,over
B0_PLANNING_FRESH,44,e182729.1,1.0501073778237087,over
B0_PLANNING_FRESH,44,n1134477.1,1.0500459485335938,over
B0_PLANNING_FRESH,44,m1047733.1,1.0512584153649562,over
B0_PLANNING_FRESH,44,l3066804.1,1.0512510433629967,over
B0_PLANNING_FRESH,44,l2691967.1,1.0512668121430067,over
B0_PLANNING_FRESH,44,m1069504.1,1.0510149661445487,over
B0_PLANNING_FRESH,44,m1047711.1,1.051304848540589,over
B0_PLANNING_FRESH,44,m1047718.1,1.0512962931637024,over
B0_PLANNING_FRESH,44,l2785538.1,1.0513586165552316,over
B0_PLANNING_FRESH,44,l3254231.1,1.051334121473449,over
B0_PLANNING_FRESH,44,m1047723.1,1.0512815205822617,over
B0_PLANNING_FRESH,44,m1047729.1,1.0512723818585124,over
B0_PLANNING_FRESH,44,l3066814.1,1.050005409943023,over
B0_PLANNING_FRESH,44,p827549.1,1.0504298604752755,over
B0_PLANNING_FRESH,44,n1140518.1,1.0504253767490046,over
B0_PLANNING_FRESH,44,l2748144.1,1.0500170954544152,over
B0_PLANNING_FRESH,44,m1069524.1,1.0513143138486805,over
B0_PLANNING_FRESH,44,m1069503.1,1.0501290358901447,over
B0_PLANNING_FRESH,44,n1136367.1,1.051282573455262,over
B0_PLANNING_FRESH,44,m1069515.1,1.0513348494452097,over
B0_PLANNING_FRESH,44,m1047721.1,1.051290929002495,over
B0_PLANNING_FRESH,44,m1047623.1,1.0504091078145952,over
B0_PLANNING_FRESH,44,l2748157.1,1.0504028690146132,over
B0_PLANNING_FRESH,44,m1069509.1,1.05033638839878,over
B0_PLANNING_FRESH,44,l2766738.1,1.050547005705794,over
B0_PLANNING_FRESH,44,m1069500.1,1.0504307894744094,over
B0_PLANNING_FRESH,44,l3008279.1,1.0504067901592031,over
B0_PLANNING_FRESH,44,l2785537.1,1.0504031443511306,over
B0_PLANNING_FRESH,44,l3254230.1,1.0513141370484642,over
B0_PLANNING_FRESH,44,n1136365.1,1.0511511709959356,over
B0_PLANNING_FRESH,44,m1069517.1,1.0512436646243961,over
B0_PLANNING_FRESH,44,m1069513.1,1.0507188191988224,over
B0_PLANNING_FRESH,44,m1069505.1,1.0502389957729237,over
B0_PLANNING_FRESH,44,l2820533.1,1.0513114259864749,over
B0_PLANNING_FRESH,44,m1069516.1,1.050991750765064,over
B0_PLANNING_FRESH,44,e206211.1,1.0501044135371285,over
B0_PLANNING_FRESH,44,n1134480.1,1.050064594724162,over
B0_PLANNING_FRESH,44,n1134478.1,1.0502040504847734,over
B0_PLANNING_FRESH,44,n1136366.1,1.0512435091503167,over
B0_PLANNING_FRESH,44,l2916620.1,1.0512434909618573,over
B0_PLANNING_FRESH,44,n1134479.1,1.050121507246312,over
B0_PLANNING_FRESH,44,m1069514.1,1.0513971236084627,over
B0_PLANNING_FRESH,44,d6290228-6_int.1,1.0514982660539824,over
B0_PLANNING_FRESH,44,q16642.1,1.0514959997083964,over
B0_PLANNING_FRESH,44,n1136657.1,1.0514160196160218,over
B0_PLANNING_FRESH,44,r42246.1,1.0515007574784987,over
B0_PLANNING_FRESH,44,l3197654.1,1.0510128130863994,over
B0_PLANNING_FRESH,44,l2897792.1,1.0513891613675534,over
B0_PLANNING_FRESH,44,n1136368.1,1.0513917189850452,over
B0_PLANNING_FRESH,44,m1069518.1,1.051243571931019,over
B0_PLANNING_FRESH,44,l2973150.1,1.0512651261201449,over
B0_PLANNING_FRESH,44,l2764403.1,1.0504172052918188,over
B0_PLANNING_FRESH,44,p827548.1,1.051394499442834,over
B0_PLANNING_FRESH,44,d5682346-3_int.1,1.050104659849457,over
B0_PLANNING_FRESH,44,q16642_cap.1,1.051493733521634,over
B0_PLANNING_FRESH,44,sx2897792a.2,1.0500213994426575,over
B0_PLANNING_FRESH,44,sx2785538a.2,1.0505548307089738,over
B0_PLANNING_FRESH,44,sx3254231a.2,1.0500618774063164,over
B0_PLANNING_FRESH,45,l2748143.1,1.0501928610314453,over
B0_PLANNING_FRESH,45,l3251854.1,1.0501896770312347,over
B0_PLANNING_FRESH,45,m1069519.1,1.050295464274795,over
B0_PLANNING_FRESH,45,n1136354.1,1.0502559553845272,over
B0_PLANNING_FRESH,45,l2897793.1,1.0515915860483573,over
B0_PLANNING_FRESH,45,m1069521.1,1.0515854146086998,over
B0_PLANNING_FRESH,45,d5534969-2_int.1,1.0503458531067658,over
B0_PLANNING_FRESH,45,e182729.1,1.0503431281633,over
B0_PLANNING_FRESH,45,n1134477.1,1.050281081023493,over
B0_PLANNING_FRESH,45,m1047733.1,1.0515084112977409,over
B0_PLANNING_FRESH,45,l3066804.1,1.0515010408102459,over
B0_PLANNING_FRESH,45,m1069533.1,1.0502242291421149,over
B0_PLANNING_FRESH,45,n1136356.1,1.0502203773483674,over
B0_PLANNING_FRESH,45,l3197652.1,1.0501957575088066,over
B0_PLANNING_FRESH,45,m1069556.1,1.0502156119127615,over
B0_PLANNING_FRESH,45,l2691967.1,1.0515226274742187,over
B0_PLANNING_FRESH,45,m1069504.1,1.0512730319209098,over
B0_PLANNING_FRESH,45,m1047711.1,1.0515548362700375,over
B0_PLANNING_FRESH,45,m1047718.1,1.051546282373949,over
B0_PLANNING_FRESH,45,l2785538.1,1.0516085947397673,over
B0_PLANNING_FRESH,45,m1069564.1,1.050208425140112,over
B0_PLANNING_FRESH,45,n1136361.1,1.0502078170551852,over
B0_PLANNING_FRESH,45,l3254231.1,1.051584104002964,over
B0_PLANNING_FRESH,45,m1047723.1,1.0515315123325764,over
B0_PLANNING_FRESH,45,m1047729.1,1.0515223751695946,over
B0_PLANNING_FRESH,45,l3066814.1,1.0502402120653787,over
B0_PLANNING_FRESH,45,p827549.1,1.0506931760951257,over
B0_PLANNING_FRESH,45,n1140518.1,1.050688693366588,over
B0_PLANNING_FRESH,45,l3104144.1,1.0502076971158572,over
B0_PLANNING_FRESH,45,n1134476.1,1.0501260203980347,over
B0_PLANNING_FRESH,45,l2748144.1,1.0502530438777786,over
B0_PLANNING_FRESH,45,n1136363.1,1.0502084320638265,over
B0_PLANNING_FRESH,45,r18245.1,1.050208438190506,over
B0_PLANNING_FRESH,45,m1069524.1,1.0515642999326127,over
B0_PLANNING_FRESH,45,m1069503.1,1.0503649626434393,over
B0_PLANNING_FRESH,45,n1136367.1,1.0515282471652883,over
B0_PLANNING_FRESH,45,m1069515.1,1.051582486566892,over
B0_PLANNING_FRESH,45,m1047721.1,1.0515409191375371,over
B0_PLANNING_FRESH,45,m1047623.1,1.0506724280522695,over
B0_PLANNING_FRESH,45,l2748157.1,1.0506661906321937,over
B0_PLANNING_FRESH,45,m1069509.1,1.0505738553496171,over
B0_PLANNING_FRESH,45,l2766738.1,1.0507860355192,over
B0_PLANNING_FRESH,45,m1069500.1,1.050694104887468,over
B0_PLANNING_FRESH,45,m1069563.1,1.0502049271769405,over
B0_PLANNING_FRESH,45,n1136360.1,1.0502038278224641,over
B0_PLANNING_FRESH,45,l3008279.1,1.0506701109157683,over
B0_PLANNING_FRESH,45,l2785537.1,1.0506664659161276,over
B0_PLANNING_FRESH,45,l3254230.1,1.0515641231620658,over
B0_PLANNING_FRESH,45,e182746.1,1.050208439123171,over
B0_PLANNING_FRESH,45,n1136365.1,1.0513946942339292,over
B0_PLANNING_FRESH,45,m1069517.1,1.051487874609813,over
B0_PLANNING_FRESH,45,p901933.1,1.0502068786387535,over
B0_PLANNING_FRESH,45,m1069513.1,1.050959128205077,over
B0_PLANNING_FRESH,45,m1069505.1,1.0504757394923245,over
B0_PLANNING_FRESH,45,m1069499.1,1.0500293136848056,over
B0_PLANNING_FRESH,45,m1069549.1,1.0502195368337772,over
B0_PLANNING_FRESH,45,l2820533.1,1.0515614126628796,over
B0_PLANNING_FRESH,45,n1136362.1,1.0502011614639657,over
B0_PLANNING_FRESH,45,m1069516.1,1.0512340896128982,over
B0_PLANNING_FRESH,45,e206211.1,1.0503403450710163,over
B0_PLANNING_FRESH,45,n1134480.1,1.0503005339723106,over
B0_PLANNING_FRESH,45,n1134478.1,1.0504405346193402,over
B0_PLANNING_FRESH,45,n1136366.1,1.051487719167198,over
B0_PLANNING_FRESH,45,l2916620.1,1.0514877009823334,over
B0_PLANNING_FRESH,45,n1134479.1,1.0503574354617304,over
B0_PLANNING_FRESH,45,m1069514.1,1.0516470949276493,over
B0_PLANNING_FRESH,45,l2729424.1,1.050202556195291,over
B0_PLANNING_FRESH,45,d6290228-6_int.1,1.0517515727602784,over
B0_PLANNING_FRESH,45,q16642.1,1.0517494004269536,over
B0_PLANNING_FRESH,45,n1136657.1,1.051666614765535,over
B0_PLANNING_FRESH,45,r42246.1,1.0517544834654864,over
B0_PLANNING_FRESH,45,l3197654.1,1.0512708792284897,over
B0_PLANNING_FRESH,45,l2897792.1,1.051639134097668,over
B0_PLANNING_FRESH,45,n1136368.1,1.0516416912619935,over
B0_PLANNING_FRESH,45,m1069518.1,1.0514877819353552,over
B0_PLANNING_FRESH,45,l3160114.1,1.0502063986590116,over
B0_PLANNING_FRESH,45,l2973150.1,1.0515151206646849,over
B0_PLANNING_FRESH,45,l2764403.1,1.0506805237263548,over
B0_PLANNING_FRESH,45,p827548.1,1.0516444712270787,over
B0_PLANNING_FRESH,45,d5682346-3_int.1,1.050340591334374,over
B0_PLANNING_FRESH,45,q16642_cap.1,1.051747228251342,over
B0_PLANNING_FRESH,45,sx2897792a.2,1.0502711046207087,over
B0_PLANNING_FRESH,45,sx2785538a.2,1.0508045136673374,over
B0_PLANNING_FRESH,45,sx3254231a.2,1.0503117048387502,over
B0_PLANNING_FRESH,45,sx3197654a.1,1.0500940881627807,over
B0_PLANNING_FRESH,46,l2748143.1,1.052070744162232,over
B0_PLANNING_FRESH,46,l3251854.1,1.0520677052533618,over
B0_PLANNING_FRESH,46,m1069519.1,1.0521679234757133,over
B0_PLANNING_FRESH,46,n1136354.1,1.0521306889590953,over
B0_PLANNING_FRESH,46,l2897793.1,1.0535531284758268,over
B0_PLANNING_FRESH,46,m1069521.1,1.0535472371417434,over
B0_PLANNING_FRESH,46,d5534969-2_int.1,1.052212511984844,over
B0_PLANNING_FRESH,46,e182729.1,1.0522102867927345,over
B0_PLANNING_FRESH,46,n1134477.1,1.052143918974717,over
B0_PLANNING_FRESH,46,m1047733.1,1.053473666679321,over
B0_PLANNING_FRESH,46,l3066804.1,1.0534666213573358,over
B0_PLANNING_FRESH,46,n1134474.1,1.0510463109649972,over
B0_PLANNING_FRESH,46,m1069496.1,1.0512182214308219,over
B0_PLANNING_FRESH,46,n1144663.1,1.0508311125323448,over
B0_PLANNING_FRESH,46,m1089215.1,1.0509081464601893,over
B0_PLANNING_FRESH,46,m1069533.1,1.0521008245606698,over
B0_PLANNING_FRESH,46,n1136356.1,1.052097077431408,over
B0_PLANNING_FRESH,46,l3197652.1,1.0520735089846909,over
B0_PLANNING_FRESH,46,m1069556.1,1.0520924846740614,over
B0_PLANNING_FRESH,46,l2691967.1,1.0535163147639564,over
B0_PLANNING_FRESH,46,m1069504.1,1.0532800373764533,over
B0_PLANNING_FRESH,46,m1047711.1,1.0535180370502504,over
B0_PLANNING_FRESH,46,m1047718.1,1.0535098631666486,over
B0_PLANNING_FRESH,46,l2785538.1,1.0535693667512385,over
B0_PLANNING_FRESH,46,m1069564.1,1.0520855846507216,over
B0_PLANNING_FRESH,46,n1136361.1,1.0520850041972374,over
B0_PLANNING_FRESH,46,l3254231.1,1.053545986359988,over
B0_PLANNING_FRESH,46,m1047723.1,1.0534957473972746,over
B0_PLANNING_FRESH,46,m1047729.1,1.053487013791797,over
B0_PLANNING_FRESH,46,l3066814.1,1.052100638623701,over
B0_PLANNING_FRESH,46,p827549.1,1.0527311460696416,over
B0_PLANNING_FRESH,46,n1140518.1,1.052726871689537,over
B0_PLANNING_FRESH,46,l3104144.1,1.0520848897150208,over
B0_PLANNING_FRESH,46,n1134476.1,1.0519796970946411,over
B0_PLANNING_FRESH,46,l2748144.1,1.052127944954826,over
B0_PLANNING_FRESH,46,n1136363.1,1.0520855915875755,over
B0_PLANNING_FRESH,46,r18245.1,1.052085597725882,over
B0_PLANNING_FRESH,46,l2841632.1,1.0516128933258138,over
B0_PLANNING_FRESH,46,regxfmr_190-8593.1,1.0514863794486113,over
B0_PLANNING_FRESH,46,l3160098.1,1.0500267534982877,over
B0_PLANNING_FRESH,46,m1089213.1,1.0503540663729038,over
B0_PLANNING_FRESH,46,l3118855.1,1.0506000188017968,over
B0_PLANNING_FRESH,46,l3231255.1,1.0507533093061259,over
B0_PLANNING_FRESH,46,m1069524.1,1.0535270791651734,over
B0_PLANNING_FRESH,46,m1069503.1,1.0522334090235133,over
B0_PLANNING_FRESH,46,n1136367.1,1.0534609019660846,over
B0_PLANNING_FRESH,46,m1069515.1,1.053527183860333,over
B0_PLANNING_FRESH,46,m1047721.1,1.0535047377836542,over
B0_PLANNING_FRESH,46,n1134475.1,1.051398488560099,over
B0_PLANNING_FRESH,46,m1047623.1,1.052711362131899,over
B0_PLANNING_FRESH,46,l2748157.1,1.052705415658574,over
B0_PLANNING_FRESH,46,m1069509.1,1.0524525447616788,over
B0_PLANNING_FRESH,46,l2766738.1,1.0526751189772119,over
B0_PLANNING_FRESH,46,m1069500.1,1.052732031686628,over
B0_PLANNING_FRESH,46,m1069563.1,1.0520822501742253,over
B0_PLANNING_FRESH,46,n1136360.1,1.0520812007151625,over
B0_PLANNING_FRESH,46,l3008279.1,1.0527091510251871,over
B0_PLANNING_FRESH,46,l2785537.1,1.0527056720314039,over
B0_PLANNING_FRESH,46,m1069497.1,1.0514993970232205,over
B0_PLANNING_FRESH,46,l3254230.1,1.0535269104465455,over
B0_PLANNING_FRESH,46,e182746.1,1.052085598660317,over
B0_PLANNING_FRESH,46,n1136365.1,1.0533137847392569,over
B0_PLANNING_FRESH,46,m1069517.1,1.0534115514336613,over
B0_PLANNING_FRESH,46,p901933.1,1.0520841104323115,over
B0_PLANNING_FRESH,46,m1069513.1,1.0528567538405322,over
B0_PLANNING_FRESH,46,m1069505.1,1.0523496190438297,over
B0_PLANNING_FRESH,46,m1069498.1,1.0515796461004676,over
B0_PLANNING_FRESH,46,m1069499.1,1.0518772715991414,over
B0_PLANNING_FRESH,46,m1069549.1,1.0520962596563854,over
B0_PLANNING_FRESH,46,l2820533.1,1.0535243170137187,over
B0_PLANNING_FRESH,46,n1136362.1,1.0520786604544978,over
B0_PLANNING_FRESH,46,m1069516.1,1.0531452705234086,over
B0_PLANNING_FRESH,46,e206211.1,1.052210211747114,over
B0_PLANNING_FRESH,46,n1134480.1,1.0521727004848271,over
B0_PLANNING_FRESH,46,m1047574.1,1.0516735008866027,over
B0_PLANNING_FRESH,46,n1134478.1,1.0523126878131273,over
B0_PLANNING_FRESH,46,n1136366.1,1.053411401517311,over
B0_PLANNING_FRESH,46,l2916620.1,1.0534113839715513,over
B0_PLANNING_FRESH,46,n1134479.1,1.052226317165326,over
B0_PLANNING_FRESH,46,m1069514.1,1.053606108328763,over
B0_PLANNING_FRESH,46,l2729424.1,1.0520799865989845,over
B0_PLANNING_FRESH,46,d6290228-6_int.1,1.0537305514181536,over
B0_PLANNING_FRESH,46,q16642.1,1.0537288541293948,over
B0_PLANNING_FRESH,46,n1136657.1,1.0536293624270214,over
B0_PLANNING_FRESH,46,m1069495.1,1.0515456673981156,over
B0_PLANNING_FRESH,46,r42246.1,1.0537357964439438,over
B0_PLANNING_FRESH,46,l3197654.1,1.0532779826969687,over
B0_PLANNING_FRESH,46,l2897792.1,1.0535985112575297,over
B0_PLANNING_FRESH,46,n1136368.1,1.0536009515815399,over
B0_PLANNING_FRESH,46,m1069518.1,1.053411462067719,over
B0_PLANNING_FRESH,46,l3160114.1,1.0520836500593378,over
B0_PLANNING_FRESH,46,l2973150.1,1.0534800790488086,over
B0_PLANNING_FRESH,46,l2764403.1,1.052719081616189,over
B0_PLANNING_FRESH,46,p827548.1,1.0536036045201698,over
B0_PLANNING_FRESH,46,d5682346-3_int.1,1.0522104468648465,over
B0_PLANNING_FRESH,46,q16642_cap.1,1.0537271569914974,over
B0_PLANNING_FRESH,46,x3197654a.1,1.0515662835699124,over
B0_PLANNING_FRESH,46,x3197654a.2,1.0509176000708735,over
B0_PLANNING_FRESH,46,x2916620a.1,1.0512902045812103,over
B0_PLANNING_FRESH,46,x2916620a.2,1.051457151404558,over
B0_PLANNING_FRESH,46,x3251854a.2,1.0504369143346473,over
B0_PLANNING_FRESH,46,x2729424a.2,1.050231096057334,over
B0_PLANNING_FRESH,46,x2748144a.2,1.0504154601986893,over
B0_PLANNING_FRESH,46,x2764403a.1,1.0508529132567281,over
B0_PLANNING_FRESH,46,x2764403a.2,1.0505146455789165,over
B0_PLANNING_FRESH,46,x3160114a.1,1.0502522310986375,over
B0_PLANNING_FRESH,46,x2897792a.1,1.0511845002827989,over
B0_PLANNING_FRESH,46,x2897792a.2,1.0519404802077061,over
B0_PLANNING_FRESH,46,x2785538a.1,1.051086054308323,over
B0_PLANNING_FRESH,46,x2785538a.2,1.0519803297068093,over
B0_PLANNING_FRESH,46,x2748157a.1,1.0505831734624604,over
B0_PLANNING_FRESH,46,x2748157a.2,1.0507587036237993,over
B0_PLANNING_FRESH,46,x2785537a.1,1.0506510481264506,over
B0_PLANNING_FRESH,46,x2785537a.2,1.0506899561592646,over
B0_PLANNING_FRESH,46,x2897793a.1,1.051597668142438,over
B0_PLANNING_FRESH,46,x2897793a.2,1.051432655009674,over
B0_PLANNING_FRESH,46,x2820533a.1,1.0514163958823,over
B0_PLANNING_FRESH,46,x2820533a.2,1.0515587316749857,over
B0_PLANNING_FRESH,46,x3197652a.1,1.050315486659181,over
B0_PLANNING_FRESH,46,x2748143a.1,1.0502293194501227,over
B0_PLANNING_FRESH,46,x3066804a.1,1.0513844862879655,over
B0_PLANNING_FRESH,46,x3066804a.2,1.0514771893450785,over
B0_PLANNING_FRESH,46,x3254231a.1,1.0510538210726994,over
B0_PLANNING_FRESH,46,x3254231a.2,1.0519641823676513,over
B0_PLANNING_FRESH,46,x3104144a.1,1.0503355542246382,over
B0_PLANNING_FRESH,46,x3254230a.1,1.0512956394169877,over
B0_PLANNING_FRESH,46,x3254230a.2,1.0516882445777005,over
B0_PLANNING_FRESH,46,x2973150a.1,1.0515944552372827,over
B0_PLANNING_FRESH,46,x2973150a.2,1.0512927243782395,over
B0_PLANNING_FRESH,46,sx2785537a.1,1.050188783539766,over
B0_PLANNING_FRESH,46,sx2785537a.2,1.0501773291248173,over
B0_PLANNING_FRESH,46,sx2916620a.1,1.0508839164487684,over
B0_PLANNING_FRESH,46,sx2916620a.2,1.0512123786578667,over
B0_PLANNING_FRESH,46,sx2748144a.2,1.0507174653143485,over
B0_PLANNING_FRESH,46,sx2897792a.2,1.052247551910402,over
B0_PLANNING_FRESH,46,sx2785538a.2,1.0527556120941763,over
B0_PLANNING_FRESH,46,sx2897793a.1,1.0514443410049288,over
B0_PLANNING_FRESH,46,sx2897793a.2,1.0509348687635336,over
B0_PLANNING_FRESH,46,sx3254231a.1,1.0500813049493143,over
B0_PLANNING_FRESH,46,sx3254231a.2,1.052286256494173,over
B0_PLANNING_FRESH,46,sx3254230a.1,1.0510069457611022,over
B0_PLANNING_FRESH,46,sx3254230a.2,1.0516522723916244,over
B0_PLANNING_FRESH,46,sx2729424a.2,1.0500976077069228,over
B0_PLANNING_FRESH,46,sx3160114a.1,1.0502984122333188,over
B0_PLANNING_FRESH,46,sx3104144a.1,1.0504925954500421,over
B0_PLANNING_FRESH,46,sx3197652a.1,1.0506764321885649,over
B0_PLANNING_FRESH,46,sx2748143a.1,1.050270823613659,over
B0_PLANNING_FRESH,46,sx2973150a.1,1.0515213995988353,over
B0_PLANNING_FRESH,46,sx2973150a.2,1.0503904144876306,over
B0_PLANNING_FRESH,46,sx3066804a.1,1.0500751686774132,over
B0_PLANNING_FRESH,46,sx3066804a.2,1.0503491915247976,over
B0_PLANNING_FRESH,46,sx3197654a.1,1.0521059252748122,over
B0_PLANNING_FRESH,46,sx2764403a.1,1.0508010600510247,over
B0_PLANNING_FRESH,46,sx2820533a.1,1.050448317254174,over
B0_PLANNING_FRESH,46,sx2820533a.2,1.050900643055516,over
B0_PLANNING_FRESH,46,sx3251854a.2,1.0510517201257243,over
B0_PLANNING_FRESH,47,l2748143.1,1.052125365742073,over
B0_PLANNING_FRESH,47,l3251854.1,1.0521223269479691,over
B0_PLANNING_FRESH,47,m1069519.1,1.052222541756871,over
B0_PLANNING_FRESH,47,n1136354.1,1.0521853086657844,over
B0_PLANNING_FRESH,47,l2897793.1,1.0536110025177583,over
B0_PLANNING_FRESH,47,m1069521.1,1.0536051108600506,over
B0_PLANNING_FRESH,47,d5534969-2_int.1,1.0522670648794,over
B0_PLANNING_FRESH,47,e182729.1,1.0522648616416284,over
B0_PLANNING_FRESH,47,n1134477.1,1.0521983504845143,over
B0_PLANNING_FRESH,47,m1047733.1,1.053531536356237,over
B0_PLANNING_FRESH,47,l3066804.1,1.0535244906472365,over
B0_PLANNING_FRESH,47,n1134474.1,1.051098794157946,over
B0_PLANNING_FRESH,47,m1069496.1,1.0512710103733116,over
B0_PLANNING_FRESH,47,n1144663.1,1.05088321267614,over
B0_PLANNING_FRESH,47,m1089215.1,1.0509603837625916,over
B0_PLANNING_FRESH,47,m1069533.1,1.0521554454346569,over
B0_PLANNING_FRESH,47,n1136356.1,1.0521516983224282,over
B0_PLANNING_FRESH,47,l3197652.1,1.0521281304830628,over
B0_PLANNING_FRESH,47,m1069556.1,1.052147105648188,over
B0_PLANNING_FRESH,47,l2691967.1,1.0535755506815772,over
B0_PLANNING_FRESH,47,m1069504.1,1.053339796931186,over
B0_PLANNING_FRESH,47,m1047711.1,1.0535759091645311,over
B0_PLANNING_FRESH,47,m1047718.1,1.0535677348319195,over
B0_PLANNING_FRESH,47,l2785538.1,1.0536272416851746,over
B0_PLANNING_FRESH,47,m1069564.1,1.0521402057880274,over
B0_PLANNING_FRESH,47,n1136361.1,1.0521396253475,over
B0_PLANNING_FRESH,47,l3254231.1,1.0536038600095872,over
B0_PLANNING_FRESH,47,m1047723.1,1.0535536182871343,over
B0_PLANNING_FRESH,47,m1047729.1,1.0535448842019004,over
B0_PLANNING_FRESH,47,l3066814.1,1.05215499352507,over
B0_PLANNING_FRESH,47,p827549.1,1.0527921271368395,over
B0_PLANNING_FRESH,47,n1140518.1,1.0527878527463526,over
B0_PLANNING_FRESH,47,l3104144.1,1.0521395108740514,over
B0_PLANNING_FRESH,47,n1134476.1,1.05203383771151,over
B0_PLANNING_FRESH,47,l2748144.1,1.0521825647664071,over
B0_PLANNING_FRESH,47,n1136363.1,1.052140212725244,over
B0_PLANNING_FRESH,47,r18245.1,1.052140218863872,over
B0_PLANNING_FRESH,47,l2841632.1,1.0516764154567328,over
B0_PLANNING_FRESH,47,regxfmr_190-8593.1,1.0515501890860963,over
B0_PLANNING_FRESH,47,l3160098.1,1.0500774352124065,over
B0_PLANNING_FRESH,47,m1089213.1,1.0504053217944673,over
B0_PLANNING_FRESH,47,l3118855.1,1.0506517083480056,over
B0_PLANNING_FRESH,47,l3231255.1,1.0508052708766522,over
B0_PLANNING_FRESH,47,m1069524.1,1.0535849517761577,over
B0_PLANNING_FRESH,47,m1069503.1,1.052288024781048,over
B0_PLANNING_FRESH,47,n1136367.1,1.053517779560911,over
B0_PLANNING_FRESH,47,m1069515.1,1.0535845176946208,over
B0_PLANNING_FRESH,47,m1047721.1,1.0535626091673762,over
B0_PLANNING_FRESH,47,n1134475.1,1.051451597878649,over
B0_PLANNING_FRESH,47,m1047623.1,1.0527723430628377,over
B0_PLANNING_FRESH,47,l2748157.1,1.0527663966108756,over
B0_PLANNING_FRESH,47,m1069509.1,1.0525075178325058,over
B0_PLANNING_FRESH,47,l2766738.1,1.0527304546259368,over
B0_PLANNING_FRESH,47,m1069500.1,1.0527930127559693,over
B0_PLANNING_FRESH,47,m1069563.1,1.0521368714047605,over
B0_PLANNING_FRESH,47,n1136360.1,1.0521358219599781,over
B0_PLANNING_FRESH,47,l3008279.1,1.0527701318280418,over
B0_PLANNING_FRESH,47,l2785537.1,1.0527666526327293,over
B0_PLANNING_FRESH,47,m1069497.1,1.0515526855738448,over
B0_PLANNING_FRESH,47,l3254230.1,1.0535847830482619,over
B0_PLANNING_FRESH,47,e182746.1,1.0521402197983558,over
B0_PLANNING_FRESH,47,n1136365.1,1.0533701628764167,over
B0_PLANNING_FRESH,47,m1069517.1,1.0534680889031671,over
B0_PLANNING_FRESH,47,p901933.1,1.0521387316108406,over
B0_PLANNING_FRESH,47,m1069513.1,1.052912386260413,over
B0_PLANNING_FRESH,47,m1069505.1,1.0524044243300599,over
B0_PLANNING_FRESH,47,m1069498.1,1.0516330771343072,over
B0_PLANNING_FRESH,47,m1069499.1,1.0519312306536137,over
B0_PLANNING_FRESH,47,m1069549.1,1.052150880550928,over
B0_PLANNING_FRESH,47,l2820533.1,1.0535821894729718,over
B0_PLANNING_FRESH,47,n1136362.1,1.0521332817950748,over
B0_PLANNING_FRESH,47,m1069516.1,1.0532013738730817,over
B0_PLANNING_FRESH,47,e206211.1,1.0522648283983944,over
B0_PLANNING_FRESH,47,n1134480.1,1.0522273185821271,over
B0_PLANNING_FRESH,47,m1047574.1,1.0517368854250193,over
B0_PLANNING_FRESH,47,n1134478.1,1.0523674328778467,over
B0_PLANNING_FRESH,47,n1136366.1,1.0534679389680046,over
B0_PLANNING_FRESH,47,l2916620.1,1.053467921420057,over
B0_PLANNING_FRESH,47,n1134479.1,1.052280933197026,over
B0_PLANNING_FRESH,47,m1069514.1,1.053663984565277,over
B0_PLANNING_FRESH,47,m1089207.1,1.0500046399237497,over
B0_PLANNING_FRESH,47,l2729424.1,1.0521346078600389,over
B0_PLANNING_FRESH,47,d6290228-6_int.1,1.0537892035999816,over
B0_PLANNING_FRESH,47,q16642.1,1.0537875282050062,over
B0_PLANNING_FRESH,47,n1136657.1,1.0536873837911165,over
B0_PLANNING_FRESH,47,m1069495.1,1.0515990381081899,over
B0_PLANNING_FRESH,47,r42246.1,1.0537945462130947,over
B0_PLANNING_FRESH,47,l3197654.1,1.0533377423314871,over
B0_PLANNING_FRESH,47,l2897792.1,1.0536563872120348,over
B0_PLANNING_FRESH,47,n1136368.1,1.0536588276266334,over
B0_PLANNING_FRESH,47,m1069518.1,1.0534679995259846,over
B0_PLANNING_FRESH,47,l3160114.1,1.0521382712395217,over
B0_PLANNING_FRESH,47,l2973150.1,1.0535379490779706,over
B0_PLANNING_FRESH,47,l2764403.1,1.0527800626539197,over
B0_PLANNING_FRESH,47,p827548.1,1.0536614806637425,over
B0_PLANNING_FRESH,47,d5682346-3_int.1,1.0522650635095518,over
B0_PLANNING_FRESH,47,q16642_cap.1,1.05378585296064,over
B0_PLANNING_FRESH,47,x3197654a.1,1.051626012252705,over
B0_PLANNING_FRESH,47,x3197654a.2,1.0509773820790553,over
B0_PLANNING_FRESH,47,x2916620a.1,1.0513466281842876,over
B0_PLANNING_FRESH,47,x2916620a.2,1.0515135839678076,over
B0_PLANNING_FRESH,47,x3251854a.2,1.0504915134722097,over
B0_PLANNING_FRESH,47,x2729424a.2,1.050285666447438,over
B0_PLANNING_FRESH,47,x2748144a.2,1.0504700468874089,over
B0_PLANNING_FRESH,47,x2764403a.1,1.0509138404442617,over
B0_PLANNING_FRESH,47,x2764403a.2,1.05057562708794,over
B0_PLANNING_FRESH,47,x3160114a.1,1.0503068083450753,over
B0_PLANNING_FRESH,47,x2897792a.1,1.0512422436315838,over
B0_PLANNING_FRESH,47,x2897792a.2,1.0519982650837514,over
B0_PLANNING_FRESH,47,x2785538a.1,1.0511439559960831,over
B0_PLANNING_FRESH,47,x2785538a.2,1.0520381864308759,over
B0_PLANNING_FRESH,47,x2748157a.1,1.0506441309084409,over
B0_PLANNING_FRESH,47,x2748157a.2,1.0508196139020307,over
B0_PLANNING_FRESH,47,x2785537a.1,1.0507119097085624,over
B0_PLANNING_FRESH,47,x2785537a.2,1.0507508199952214,over
B0_PLANNING_FRESH,47,x2897793a.1,1.0516554347665366,over
B0_PLANNING_FRESH,47,x2897793a.2,1.0514904125692301,over
B0_PLANNING_FRESH,47,x2820533a.1,1.0514741525487061,over
B0_PLANNING_FRESH,47,x2820533a.2,1.0516164961602168,over
B0_PLANNING_FRESH,47,x3197652a.1,1.050370073863127,over
B0_PLANNING_FRESH,47,x2748143a.1,1.0502838959502259,over
B0_PLANNING_FRESH,47,x3066804a.1,1.0514422412015056,over
B0_PLANNING_FRESH,47,x3066804a.2,1.0515349493510062,over
B0_PLANNING_FRESH,47,x3254231a.1,1.0511115578220562,over
B0_PLANNING_FRESH,47,x3254231a.2,1.0520219691252009,over
B0_PLANNING_FRESH,47,x3104144a.1,1.0503901420729422,over
B0_PLANNING_FRESH,47,x3254230a.1,1.0513533894499703,over
B0_PLANNING_FRESH,47,x3254230a.2,1.0517460161773668,over
B0_PLANNING_FRESH,47,x2973150a.1,1.0516522216848896,over
B0_PLANNING_FRESH,47,x2973150a.2,1.051350474251092,over
B0_PLANNING_FRESH,47,sx2785537a.1,1.0502496183440488,over
B0_PLANNING_FRESH,47,sx2785537a.2,1.0502381632655746,over
B0_PLANNING_FRESH,47,sx2916620a.1,1.05094031824603,over
B0_PLANNING_FRESH,47,sx2916620a.2,1.0512687980839632,over
B0_PLANNING_FRESH,47,sx2748144a.2,1.0507719935878246,over
B0_PLANNING_FRESH,47,sx2897792a.2,1.0523053536544171,over
B0_PLANNING_FRESH,47,sx2785538a.2,1.0528134196423873,over
B0_PLANNING_FRESH,47,sx2897793a.1,1.051502099206423,over
B0_PLANNING_FRESH,47,sx2897793a.2,1.050992598978572,over
B0_PLANNING_FRESH,47,sx3254231a.1,1.050138988276174,over
B0_PLANNING_FRESH,47,sx3254231a.2,1.0523440609439785,over
B0_PLANNING_FRESH,47,sx3254230a.1,1.0510646799354928,over
B0_PLANNING_FRESH,47,sx3254230a.2,1.0517100420152576,over
B0_PLANNING_FRESH,47,sx2729424a.2,1.0501521351922587,over
B0_PLANNING_FRESH,47,sx3160114a.1,1.0503529511019887,over
B0_PLANNING_FRESH,47,sx3104144a.1,1.0505471608881378,over
B0_PLANNING_FRESH,47,sx3197652a.1,1.0507309624483399,over
B0_PLANNING_FRESH,47,sx2748143a.1,1.0503253351596082,over
B0_PLANNING_FRESH,47,sx2973150a.1,1.051579162033332,over
B0_PLANNING_FRESH,47,sx2973150a.2,1.0504481147945721,over
B0_PLANNING_FRESH,47,sx3066804a.1,1.050132851667193,over
B0_PLANNING_FRESH,47,sx3066804a.2,1.050406889567269,over
B0_PLANNING_FRESH,47,sx3197654a.1,1.0521655966888044,over
B0_PLANNING_FRESH,47,sx2764403a.1,1.0508619121742973,over
B0_PLANNING_FRESH,47,sx2820533a.1,1.0505060207418446,over
B0_PLANNING_FRESH,47,sx2820533a.2,1.0509583713904598,over
B0_PLANNING_FRESH,47,sx3251854a.2,1.0511062686766908,over
B0_PLANNING_FRESH,48,l2748143.1,1.052434733275785,over
B0_PLANNING_FRESH,48,l3251854.1,1.0524317412846944,over
B0_PLANNING_FRESH,48,m1069519.1,1.0525301538066447,over
B0_PLANNING_FRESH,48,n1136354.1,1.0524936590538334,over
B0_PLANNING_FRESH,48,m1089205.1,1.050117497370334,over
B0_PLANNING_FRESH,48,n1134472.1,1.0501166107479074,over
B0_PLANNING_FRESH,48,l2897793.1,1.0539296248380756,over
B0_PLANNING_FRESH,48,m1069521.1,1.0539238239410138,over
B0_PLANNING_FRESH,48,d5534969-2_int.1,1.0525731388919342,over
B0_PLANNING_FRESH,48,e182729.1,1.0525709774957284,over
B0_PLANNING_FRESH,48,n1134477.1,1.0525038504234658,over
B0_PLANNING_FRESH,48,m1047733.1,1.0538513578423265,over
B0_PLANNING_FRESH,48,l3066804.1,1.053844416445174,over
B0_PLANNING_FRESH,48,n1134474.1,1.0513950715201767,over
B0_PLANNING_FRESH,48,m1069496.1,1.0515687343111093,over
B0_PLANNING_FRESH,48,n1144663.1,1.05117767816923,over
B0_PLANNING_FRESH,48,m1089215.1,1.051255497977692,over
B0_PLANNING_FRESH,48,m1069533.1,1.0524644004633346,over
B0_PLANNING_FRESH,48,n1136356.1,1.0524606858401946,over
B0_PLANNING_FRESH,48,l3197652.1,1.0524374555774372,over
B0_PLANNING_FRESH,48,m1069556.1,1.0524561480848038,over
B0_PLANNING_FRESH,48,l2691967.1,1.0538971590075716,over
B0_PLANNING_FRESH,48,m1069504.1,1.0536628598439632,over
B0_PLANNING_FRESH,48,m1047711.1,1.0538950686765918,over
B0_PLANNING_FRESH,48,m1047718.1,1.0538870168620518,over
B0_PLANNING_FRESH,48,l2785538.1,1.0539456137368621,over
B0_PLANNING_FRESH,48,m1069564.1,1.0524493400244554,over
B0_PLANNING_FRESH,48,n1136361.1,1.0524487684826644,over
B0_PLANNING_FRESH,48,l3254231.1,1.0539225922104911,over
B0_PLANNING_FRESH,48,m1047723.1,1.053873111270333,over
B0_PLANNING_FRESH,48,m1047729.1,1.0538645073094988,over
B0_PLANNING_FRESH,48,l3066814.1,1.0524601311789528,over
B0_PLANNING_FRESH,48,p827549.1,1.0531185490838286,over
B0_PLANNING_FRESH,48,n1140518.1,1.0531143407540275,over
B0_PLANNING_FRESH,48,l3104144.1,1.0524486556390464,over
B0_PLANNING_FRESH,48,n1134476.1,1.052337960405355,over
B0_PLANNING_FRESH,48,l2748144.1,1.0524909695320626,over
B0_PLANNING_FRESH,48,m1089203.1,1.050119298178163,over
B0_PLANNING_FRESH,48,n1136363.1,1.0524493469639433,over
B0_PLANNING_FRESH,48,r18245.1,1.0524493531045807,over
B0_PLANNING_FRESH,48,l2841632.1,1.052009481870715,over
B0_PLANNING_FRESH,48,regxfmr_190-8593.1,1.0518840056769498,over
B0_PLANNING_FRESH,48,l3160098.1,1.0503653442424243,over
B0_PLANNING_FRESH,48,m1089213.1,1.0506958446250025,over
B0_PLANNING_FRESH,48,l3118855.1,1.0509442424636855,over
B0_PLANNING_FRESH,48,l3231255.1,1.051099081018951,over
B0_PLANNING_FRESH,48,m1069524.1,1.0539039753761044,over
B0_PLANNING_FRESH,48,m1069503.1,1.0525943341194677,over
B0_PLANNING_FRESH,48,m1089200.1,1.0501138163451704,over
B0_PLANNING_FRESH,48,n1136367.1,1.0538325007027325,over
B0_PLANNING_FRESH,48,m1069515.1,1.0539006464691996,over
B0_PLANNING_FRESH,48,m1047721.1,1.0538819678853915,over
B0_PLANNING_FRESH,48,n1134475.1,1.0517508379206408,over
B0_PLANNING_FRESH,48,m1047623.1,1.0530990703002876,over
B0_PLANNING_FRESH,48,l2748157.1,1.0530932152765229,over
B0_PLANNING_FRESH,48,m1069509.1,1.052815187436329,over
B0_PLANNING_FRESH,48,l2766738.1,1.0530395045877352,over
B0_PLANNING_FRESH,48,m1069500.1,1.0531194210134647,over
B0_PLANNING_FRESH,48,m1069563.1,1.0524460582393227,over
B0_PLANNING_FRESH,48,n1136360.1,1.0524450245948909,over
B0_PLANNING_FRESH,48,l3008279.1,1.0530968930570082,over
B0_PLANNING_FRESH,48,l2785537.1,1.0530934670857395,over
B0_PLANNING_FRESH,48,m1069497.1,1.0518527739354566,over
B0_PLANNING_FRESH,48,l3254230.1,1.0539038092530104,over
B0_PLANNING_FRESH,48,e182746.1,1.0524493540393707,over
B0_PLANNING_FRESH,48,n1136365.1,1.0536832217657157,over
B0_PLANNING_FRESH,48,m1069517.1,1.0537817605539523,over
B0_PLANNING_FRESH,48,p901933.1,1.0524478891026519,over
B0_PLANNING_FRESH,48,m1069513.1,1.053222577416803,over
B0_PLANNING_FRESH,48,m1069505.1,1.0527114551841097,over
B0_PLANNING_FRESH,48,m1069498.1,1.0519338399550966,over
B0_PLANNING_FRESH,48,m1069499.1,1.052234493493471,over
B0_PLANNING_FRESH,48,m1069549.1,1.052459875128213,over
B0_PLANNING_FRESH,48,l2820533.1,1.0539012539818988,over
B0_PLANNING_FRESH,48,n1136362.1,1.052442525418282,over
B0_PLANNING_FRESH,48,m1069516.1,1.0535133760095585,over
B0_PLANNING_FRESH,48,e206211.1,1.0525715987883226,over
B0_PLANNING_FRESH,48,n1134480.1,1.052534835609928,over
B0_PLANNING_FRESH,48,m1047574.1,1.0520695913494575,over
B0_PLANNING_FRESH,48,n1134478.1,1.0526742344734878,over
B0_PLANNING_FRESH,48,n1136366.1,1.0537816125110089,over
B0_PLANNING_FRESH,48,l2916620.1,1.0537815951819596,over
B0_PLANNING_FRESH,48,n1134479.1,1.0525873838592599,over
B0_PLANNING_FRESH,48,m1069514.1,1.0539817866009582,over
B0_PLANNING_FRESH,48,m1089207.1,1.0502919632454997,over
B0_PLANNING_FRESH,48,l2729424.1,1.0524438287080944,over
B0_PLANNING_FRESH,48,d6290228-6_int.1,1.0541092352981478,over
B0_PLANNING_FRESH,48,q16642.1,1.054107594124161,over
B0_PLANNING_FRESH,48,n1136657.1,1.0540056028774076,over
B0_PLANNING_FRESH,48,m1069495.1,1.0518995153720452,over
B0_PLANNING_FRESH,48,r42246.1,1.054114800930213,over
B0_PLANNING_FRESH,48,l2973148.1,1.0501047437027564,over
B0_PLANNING_FRESH,48,l3197654.1,1.0536608368525342,over
B0_PLANNING_FRESH,48,l2897792.1,1.0539743069866372,over
B0_PLANNING_FRESH,48,p895087.1,1.0501185151248935,over
B0_PLANNING_FRESH,48,n1136368.1,1.053976709583133,over
B0_PLANNING_FRESH,48,m1069518.1,1.0537816723094988,over
B0_PLANNING_FRESH,48,l3160114.1,1.052447435070288,over
B0_PLANNING_FRESH,48,l2973150.1,1.0538576752948376,over
B0_PLANNING_FRESH,48,l2764403.1,1.0531066710111212,over
B0_PLANNING_FRESH,48,p827548.1,1.0539793215051951,over
B0_PLANNING_FRESH,48,d5682346-3_int.1,1.0525718303179668,over
B0_PLANNING_FRESH,48,l2916602.1,1.0501121554630606,over
B0_PLANNING_FRESH,48,q16642_cap.1,1.0541059530999555,over
B0_PLANNING_FRESH,48,x3197654a.1,1.0519599521807408,over
B0_PLANNING_FRESH,48,x3197654a.2,1.0513234647231557,over
B0_PLANNING_FRESH,48,x2916620a.1,1.0516774426670847,over
B0_PLANNING_FRESH,48,x2916620a.2,1.051842688495038,over
B0_PLANNING_FRESH,48,x3251854a.1,1.050013831394708,over
B0_PLANNING_FRESH,48,x3251854a.2,1.0508115009391226,over
B0_PLANNING_FRESH,48,x2729424a.1,1.050243663044396,over
B0_PLANNING_FRESH,48,x2729424a.2,1.0506087441414025,over
B0_PLANNING_FRESH,48,x2748144a.1,1.050154234369675,over
B0_PLANNING_FRESH,48,x2748144a.2,1.0507903152007874,over
B0_PLANNING_FRESH,48,x2764403a.1,1.0512535998614123,over
B0_PLANNING_FRESH,48,x2764403a.2,1.0509221673347542,over
B0_PLANNING_FRESH,48,x3160114a.1,1.0506287233596403,over
B0_PLANNING_FRESH,48,x3160114a.2,1.0502311016211148,over
B0_PLANNING_FRESH,48,x2897792a.1,1.051582054797128,over
B0_PLANNING_FRESH,48,x2897792a.2,1.052326763331606,over
B0_PLANNING_FRESH,48,x2785538a.1,1.0514863829213932,over
B0_PLANNING_FRESH,48,x2785538a.2,1.052366447988188,over
B0_PLANNING_FRESH,48,x2748157a.1,1.050988272168994,over
B0_PLANNING_FRESH,48,x2748157a.2,1.0511617976434064,over
B0_PLANNING_FRESH,48,x2785537a.1,1.0510547631434828,over
B0_PLANNING_FRESH,48,x2785537a.2,1.051094052334314,over
B0_PLANNING_FRESH,48,x2897793a.1,1.0519884817497418,over
B0_PLANNING_FRESH,48,x2897793a.2,1.0518271655631954,over
B0_PLANNING_FRESH,48,x2820533a.1,1.0518101198577294,over
B0_PLANNING_FRESH,48,x2820533a.2,1.051951157734482,over
B0_PLANNING_FRESH,48,x3197652a.1,1.0506910012996082,over
B0_PLANNING_FRESH,48,x3197652a.2,1.0501463396062138,over
B0_PLANNING_FRESH,48,x2748143a.1,1.0506061831825189,over
B0_PLANNING_FRESH,48,x2748143a.2,1.0502265309883327,over
B0_PLANNING_FRESH,48,x3066804a.1,1.0517786419876527,over
B0_PLANNING_FRESH,48,x3066804a.2,1.0518708535114418,over
B0_PLANNING_FRESH,48,x3254231a.1,1.0514534582400106,over
B0_PLANNING_FRESH,48,x3254231a.2,1.0523500336759697,over
B0_PLANNING_FRESH,48,x3104144a.1,1.0507106005618845,over
B0_PLANNING_FRESH,48,x3104144a.2,1.0501495586601008,over
B0_PLANNING_FRESH,48,x3254230a.1,1.051691345760444,over
B0_PLANNING_FRESH,48,x3254230a.2,1.0520785800258852,over
B0_PLANNING_FRESH,48,x2973150a.1,1.051985229965717,over
B0_PLANNING_FRESH,48,x2973150a.2,1.0516894156572958,over
B0_PLANNING_FRESH,48,sx2748157a.2,1.0502864099803986,over
B0_PLANNING_FRESH,48,sx2785537a.1,1.0506003547486806,over
B0_PLANNING_FRESH,48,sx2785537a.2,1.0505901000588473,over
B0_PLANNING_FRESH,48,sx2916620a.1,1.0512779950865836,over
B0_PLANNING_FRESH,48,sx2916620a.2,1.0516021274130518,over
B0_PLANNING_FRESH,48,sx2748144a.2,1.0510874190260933,over
B0_PLANNING_FRESH,48,sx2897792a.1,1.0503213776259506,over
B0_PLANNING_FRESH,48,sx2897792a.2,1.0526291761201882,over
B0_PLANNING_FRESH,48,sx2785538a.2,1.0531289978143297,over
B0_PLANNING_FRESH,48,sx2897793a.1,1.051837876610029,over
B0_PLANNING_FRESH,48,sx2897793a.2,1.0513377059602298,over
B0_PLANNING_FRESH,48,sx3254231a.1,1.0504969870086711,over
B0_PLANNING_FRESH,48,sx3254231a.2,1.0526670888418466,over
B0_PLANNING_FRESH,48,sx3254230a.1,1.051407463847972,over
B0_PLANNING_FRESH,48,sx3254230a.2,1.0520433058340075,over
B0_PLANNING_FRESH,48,sx2729424a.2,1.0504776382133025,over
B0_PLANNING_FRESH,48,sx3160114a.1,1.050674201009055,over
B0_PLANNING_FRESH,48,sx3104144a.1,1.050865162223241,over
B0_PLANNING_FRESH,48,sx3197652a.1,1.051046070978913,over
B0_PLANNING_FRESH,48,sx2748143a.1,1.0506470853259424,over
B0_PLANNING_FRESH,48,sx2973150a.1,1.0519137036001376,over
B0_PLANNING_FRESH,48,sx2973150a.2,1.0508021207280063,over
B0_PLANNING_FRESH,48,sx3066804a.1,1.0504914572243287,over
B0_PLANNING_FRESH,48,sx3066804a.2,1.050762046022867,over
B0_PLANNING_FRESH,48,sx3197654a.1,1.0524907485145576,over
B0_PLANNING_FRESH,48,sx2764403a.1,1.0512028354227243,over
B0_PLANNING_FRESH,48,sx2820533a.1,1.0508583507229279,over
B0_PLANNING_FRESH,48,sx2820533a.2,1.051304341904482,over
B0_PLANNING_FRESH,48,sx3251854a.2,1.0514162366939839,over
B0_PLANNING_FRESH,84,d5587291-3_int.3,1.0500031984286784,over
B0_PLANNING_FRESH,84,190-8581.3,1.05003647704157,over
B0_PLANNING_FRESH,85,q14734.3,1.0500070437069309,over
B0_PLANNING_FRESH,85,d5587291-3_int.3,1.0500223157155846,over
B0_PLANNING_FRESH,85,190-8581.3,1.0500555775484266,over
B0_PLANNING_FRESH,88,m1069519.1,1.0500097744364887,over
B0_PLANNING_FRESH,88,l2897793.1,1.0504596279356442,over
B0_PLANNING_FRESH,88,m1069521.1,1.0504500422974987,over
B0_PLANNING_FRESH,88,d5534969-2_int.1,1.050128671208913,over
B0_PLANNING_FRESH,88,e182729.1,1.0501209108557534,over
B0_PLANNING_FRESH,88,n1134477.1,1.050100677061358,over
B0_PLANNING_FRESH,88,m1047733.1,1.0503317025379377,over
B0_PLANNING_FRESH,88,l3066804.1,1.050320451735391,over
B0_PLANNING_FRESH,88,l2691967.1,1.0500720694249672,over
B0_PLANNING_FRESH,88,m1047711.1,1.050402733219403,over
B0_PLANNING_FRESH,88,m1047718.1,1.0503896261569274,over
B0_PLANNING_FRESH,88,l2785538.1,1.050486051803536,over
B0_PLANNING_FRESH,88,l3254231.1,1.050448011328554,over
B0_PLANNING_FRESH,88,m1047723.1,1.0503670160256162,over
B0_PLANNING_FRESH,88,m1047729.1,1.0503530425286907,over
B0_PLANNING_FRESH,88,l3066814.1,1.0500830198545847,over
B0_PLANNING_FRESH,88,n1134476.1,1.0500338247183554,over
B0_PLANNING_FRESH,88,m1069524.1,1.0504172488125296,over
B0_PLANNING_FRESH,88,m1069503.1,1.0501303508164928,over
B0_PLANNING_FRESH,88,n1136367.1,1.0506897214465445,over
B0_PLANNING_FRESH,88,m1069515.1,1.0506239239239261,over
B0_PLANNING_FRESH,88,m1047721.1,1.0503814128660633,over
B0_PLANNING_FRESH,88,m1069509.1,1.0502438541869534,over
B0_PLANNING_FRESH,88,l2766738.1,1.050359264907406,over
B0_PLANNING_FRESH,88,l3254230.1,1.050416974049743,over
B0_PLANNING_FRESH,88,n1136365.1,1.0506883757748482,over
B0_PLANNING_FRESH,88,m1069517.1,1.050738848993123,over
B0_PLANNING_FRESH,88,m1069513.1,1.0504527557512573,over
B0_PLANNING_FRESH,88,m1069505.1,1.050190527481461,over
B0_PLANNING_FRESH,88,l2820533.1,1.0504128429422608,over
B0_PLANNING_FRESH,88,m1069516.1,1.0506014362495464,over
B0_PLANNING_FRESH,88,e206211.1,1.050087664092165,over
B0_PLANNING_FRESH,88,n1134480.1,1.0500185707738998,over
B0_PLANNING_FRESH,88,n1134478.1,1.050171399733049,over
B0_PLANNING_FRESH,88,n1136366.1,1.050738625968519,over
B0_PLANNING_FRESH,88,l2916620.1,1.0507385999636065,over
B0_PLANNING_FRESH,88,n1134479.1,1.0501172810756514,over
B0_PLANNING_FRESH,88,m1069514.1,1.0505458516910802,over
B0_PLANNING_FRESH,88,d6290228-6_int.1,1.0504522232669427,over
B0_PLANNING_FRESH,88,q16642.1,1.050445307840356,over
B0_PLANNING_FRESH,88,n1136657.1,1.0505283150990927,over
B0_PLANNING_FRESH,88,r42246.1,1.0504319143450267,over
B0_PLANNING_FRESH,88,l2897792.1,1.0505334882126187,over
B0_PLANNING_FRESH,88,n1136368.1,1.0505374595219812,over
B0_PLANNING_FRESH,88,m1069518.1,1.0507387158660253,over
B0_PLANNING_FRESH,88,l2973150.1,1.0503419556264846,over
B0_PLANNING_FRESH,88,p827548.1,1.0505417769149479,over
B0_PLANNING_FRESH,88,d5682346-3_int.1,1.0500880380640407,over
B0_PLANNING_FRESH,88,q16642_cap.1,1.05043839266858,over
B0_PLANNING_FRESH,89,l2748143.1,1.050062409564695,over
B0_PLANNING_FRESH,89,l3251854.1,1.0500575493838797,over
B0_PLANNING_FRESH,89,m1069519.1,1.0502318551560539,over
B0_PLANNING_FRESH,89,n1136354.1,1.0501634208041544,over
B0_PLANNING_FRESH,89,l2897793.1,1.0506941315647051,over
B0_PLANNING_FRESH,89,m1069521.1,1.0506845479338647,over
B0_PLANNING_FRESH,89,d5534969-2_int.1,1.0503504907302197,over
B0_PLANNING_FRESH,89,e182729.1,1.050342812995783,over
B0_PLANNING_FRESH,89,n1134477.1,1.0503220307985786,over
B0_PLANNING_FRESH,89,m1047733.1,1.0505662327229273,over
B0_PLANNING_FRESH,89,l3066804.1,1.0505549842209536,over
B0_PLANNING_FRESH,89,m1069533.1,1.0501078554163243,over
B0_PLANNING_FRESH,89,n1136356.1,1.0501032104167187,over
B0_PLANNING_FRESH,89,l3197652.1,1.0500668298851112,over
B0_PLANNING_FRESH,89,m1069556.1,1.0500967094473712,over
B0_PLANNING_FRESH,89,l2691967.1,1.0503116915881094,over
B0_PLANNING_FRESH,89,m1047711.1,1.0506372487462803,over
B0_PLANNING_FRESH,89,m1047718.1,1.0506241444044024,over
B0_PLANNING_FRESH,89,l2785538.1,1.0507205499019023,over
B0_PLANNING_FRESH,89,m1069564.1,1.0500864460559458,over
B0_PLANNING_FRESH,89,n1136361.1,1.050085517741034,over
B0_PLANNING_FRESH,89,l3254231.1,1.0506825173852274,over
B0_PLANNING_FRESH,89,m1047723.1,1.050601538948562,over
B0_PLANNING_FRESH,89,m1047729.1,1.0505875683300485,over
B0_PLANNING_FRESH,89,l3066814.1,1.0503040796121375,over
B0_PLANNING_FRESH,89,l3104144.1,1.0500853355818638,over
B0_PLANNING_FRESH,89,n1134476.1,1.0502540621048302,over
B0_PLANNING_FRESH,89,l2748144.1,1.0501583789776834,over
B0_PLANNING_FRESH,89,n1136363.1,1.0500864529697789,over
B0_PLANNING_FRESH,89,r18245.1,1.0500864590877148,over
B0_PLANNING_FRESH,89,m1069524.1,1.050651761317194,over
B0_PLANNING_FRESH,89,m1069503.1,1.0503524099264199,over
B0_PLANNING_FRESH,89,n1136367.1,1.050920423113709,over
B0_PLANNING_FRESH,89,m1069515.1,1.0508563544250493,over
B0_PLANNING_FRESH,89,m1047721.1,1.0506159328145155,over
B0_PLANNING_FRESH,89,n1134475.1,1.0500142218136639,over
B0_PLANNING_FRESH,89,m1069509.1,1.0504672811450573,over
B0_PLANNING_FRESH,89,l2766738.1,1.0505840795887191,over
B0_PLANNING_FRESH,89,m1069563.1,1.050081028620859,over
B0_PLANNING_FRESH,89,n1136360.1,1.0500793504321058,over
B0_PLANNING_FRESH,89,m1069497.1,1.050055799615938,over
B0_PLANNING_FRESH,89,l3254230.1,1.050651486612133,over
B0_PLANNING_FRESH,89,e182746.1,1.0500864600190487,over
B0_PLANNING_FRESH,89,n1136365.1,1.050917179118769,over
B0_PLANNING_FRESH,89,m1069517.1,1.050968261751609,over
B0_PLANNING_FRESH,89,p901933.1,1.0500840508928349,over
B0_PLANNING_FRESH,89,m1069513.1,1.050678706146057,over
B0_PLANNING_FRESH,89,m1069505.1,1.0504133121691828,over
B0_PLANNING_FRESH,89,m1069498.1,1.0500888839049838,over
B0_PLANNING_FRESH,89,m1069499.1,1.0502117318466415,over
B0_PLANNING_FRESH,89,m1069549.1,1.0501021975389508,over
B0_PLANNING_FRESH,89,l2820533.1,1.0506473563462575,over
B0_PLANNING_FRESH,89,n1136362.1,1.0500751972814684,over
B0_PLANNING_FRESH,89,m1069516.1,1.0508291884569416,over
B0_PLANNING_FRESH,89,e206211.1,1.0503097308632001,over
B0_PLANNING_FRESH,89,n1134480.1,1.0502406499194228,over
B0_PLANNING_FRESH,89,n1134478.1,1.0503939538814375,over
B0_PLANNING_FRESH,89,n1136366.1,1.0509680387798161,over
B0_PLANNING_FRESH,89,l2916620.1,1.050968012780971,over
B0_PLANNING_FRESH,89,n1134479.1,1.050339342530013,over
B0_PLANNING_FRESH,89,m1069514.1,1.0507803373881877,over
B0_PLANNING_FRESH,89,l2729424.1,1.0500774115340297,over
B0_PLANNING_FRESH,89,d6290228-6_int.1,1.0506896436498534,over
B0_PLANNING_FRESH,89,q16642.1,1.0506828103686694,over
B0_PLANNING_FRESH,89,n1136657.1,1.0507633497018019,over
B0_PLANNING_FRESH,89,m1069495.1,1.0500748734640137,over
B0_PLANNING_FRESH,89,r42246.1,1.050669702481452,over
B0_PLANNING_FRESH,89,l2897792.1,1.0507679764746187,over
B0_PLANNING_FRESH,89,n1136368.1,1.050771946960156,over
B0_PLANNING_FRESH,89,m1069518.1,1.0509681286562027,over
B0_PLANNING_FRESH,89,l3160114.1,1.0500833545499937,over
B0_PLANNING_FRESH,89,l2973150.1,1.0505764837056284,over
B0_PLANNING_FRESH,89,p827548.1,1.050776263457449,over
B0_PLANNING_FRESH,89,d5682346-3_int.1,1.050310104761509,over
B0_PLANNING_FRESH,89,q16642_cap.1,1.0506759773410594,over
B0_PLANNING_FRESH,89,sx2785538a.2,1.050019626488583,over
